Info: SIMULATION PARAMETERS:
Info: TIMESTEP               2
Info: NUMBER OF STEPS        0
Info: STEPS PER CYCLE        10
Info: PERIODIC CELL BASIS 1  25.995 0 0
Info: PERIODIC CELL BASIS 2  0 25.882 0
Info: PERIODIC CELL BASIS 3  0 0 25.762
Info: PERIODIC CELL CENTER   -0.050781 -0.130141 0.175151
Info: WRAPPING ALL CLUSTERS AROUND PERIODIC BOUNDARIES ON OUTPUT.
Info: FIRST LDB TIMESTEP     50
Info: LAST LDB TIMESTEP     -1
Info: HOM BACKGROUND SCALING 1
Info: MIN ATOMS PER PATCH    40
Info: INITIAL TEMPERATURE    300
Info: CENTER OF MASS MOVING INITIALLY? NO
Info: DIELECTRIC             1
Info: EXCLUDE                SCALED ONE-FOUR
Info: 1-4 ELECTROSTATICS SCALED BY 1
Info: MODIFIED 1-4 VDW PARAMETERS WILL BE USED
Info: DCD FILENAME           go.dcd
Info: DCD FREQUENCY          1
Info: DCD FIRST STEP         1
Info: DCD FILE WILL CONTAIN UNIT CELL DATA
Info: NO EXTENDED SYSTEM TRAJECTORY OUTPUT
Info: NO VELOCITY DCD OUTPUT
Info: NO FORCE DCD OUTPUT
Info: OUTPUT FILENAME        go
Info: BINARY OUTPUT FILES WILL BE USED
Info: RESTART FILENAME       go.restart
Info: RESTART FREQUENCY      10000
Info: BINARY RESTART FILES WILL BE USED
Info: SWITCHING ACTIVE
Info: SWITCHING ON           9
Info: SWITCHING OFF          10
Info: PAIRLIST DISTANCE      11.5
Info: PAIRLIST SHRINK RATE   0.01
Info: PAIRLIST GROW RATE     0.01
Info: PAIRLIST TRIGGER       0.3
Info: PAIRLISTS PER CYCLE    2
Info: PAIRLISTS ENABLED
Info: MARGIN                 0.42
Info: HYDROGEN GROUP CUTOFF  2.5
Info: PATCH DIMENSION        14.42
Info: CROSSTERM ENERGY INCLUDED IN DIHEDRAL
Info: TIMING OUTPUT STEPS    50
Info: TCL GLOBAL FORCES ACTIVE
Info: TCL GLOBAL FORCES SCRIPT INLINED IN CONFIG FILE
Info: LANGEVIN DYNAMICS ACTIVE
Info: LANGEVIN TEMPERATURE   300
Info: LANGEVIN USING BBK INTEGRATOR
Info: LANGEVIN DAMPING COEFFICIENT IS 5 INVERSE PS
Info: LANGEVIN DYNAMICS NOT APPLIED TO HYDROGENS
Info: LANGEVIN PISTON PRESSURE CONTROL ACTIVE
Info:        TARGET PRESSURE IS 1.01325 BAR
Info:     OSCILLATION PERIOD IS 200 FS
Info:             DECAY TIME IS 100 FS
Info:     PISTON TEMPERATURE IS 300 K
Info:       PRESSURE CONTROL IS GROUP-BASED
Info:    INITIAL STRAIN RATE IS 0 0 0
Info:       CELL FLUCTUATION IS ISOTROPIC
Info: USING VERLET I (r-RESPA) MTS SCHEME.
Info: C1 SPLITTING OF LONG RANGE ELECTROSTATICS
Info: PLACING ATOMS IN PATCHES BY HYDROGEN GROUPS
Info: RIGID BONDS TO HYDROGEN : ALL
Info:         ERROR TOLERANCE : 1e-08
Info:          MAX ITERATIONS : 100
Info: RIGID WATER USING SETTLE ALGORITHM
Info: RANDOM NUMBER SEED     98768674
Info: USE HYDROGEN BONDS?    NO
Info: COORDINATE PDB         solv_init.pdb
Info: STRUCTURE FILE         solv_ala2.psf
Info: PARAMETER file: CHARMM format!
Info: PARAMETERS             par_all22_prot.prm
Info: PARAMETERS             toppar_water_ions_namd.str
Info: USING ARITHMETIC MEAN TO COMBINE L-J SIGMA PARAMETERS
Info: SKIPPING rtf SECTION IN STREAM FILE
Info: SUMMARY OF PARAMETERS:
Info: 125 BONDS
Info: 325 ANGLES
Info: 445 DIHEDRAL
Info: 34 IMPROPER
Info: 6 CROSSTERM
Info: 62 VDW
Info: 0 VDW_PAIRS
Info: 0 NBTHOLE_PAIRS
Info: STRUCTURE SUMMARY:
Info: 1540 ATOMS
Info: 1033 BONDS
Info: 542 ANGLES
Info: 41 DIHEDRALS
Info: 4 IMPROPERS
Info: 0 CROSSTERMS
Info: 0 EXCLUSIONS
Info: 1530 RIGID BONDS
Info: 3090 DEGREES OF FREEDOM
Info: 516 HYDROGEN GROUPS
Info: 4 ATOMS IN LARGEST HYDROGEN GROUP
Info: 516 MIGRATION GROUPS
Info: 4 ATOMS IN LARGEST MIGRATION GROUP
Info: TOTAL MASS = 9259.97 amu
Info: TOTAL CHARGE = 2.23517e-08 e
Info: MASS DENSITY = 0.887159 g/cm^3
Info: ATOM DENSITY = 0.0888492 atoms/A^3
Info: ADDED 1616 IMPLICIT EXCLUSIONS
Info: NONBONDED TABLE R-SQUARED SPACING: 0.0625
Info: NONBONDED TABLE SIZE: 705 POINTS
Info: REMOVING COM VELOCITY 0.0101427 0.239291 -0.217503
TCL: Minimizing for 20 steps
ETITLE: TS BOND ANGLE DIHED IMPRP ELECT VDW BOUNDARY MISC KINETIC TOTAL TEMP POTENTIAL TOTAL3 TEMPAVG PRESSURE GPRESSURE VOLUME PRESSAVG GPRESSAVG
ENERGY: 0 3.3303 12.7519 3.8030 0.9081 -4717.2053 237491313.6745 0.0000 0.0000 0.0000 237486617.2624 0.0000 237486617.2624 237486617.2624 0.0000 3809208864.3148 488455399.6306 17332.7403 3809208864.3148 488455399.6306
ENERGY: 4 3.3303 12.7519 3.8030 0.9081 -4572.1784 18765.2252 0.0000 0.0000 0.0000 14213.8400 0.0000 14213.8400 14213.8400 0.0000 312324.5547 292172.7456 17332.7403 312324.5547 292172.7456
ENERGY: 8 2.8667 12.3986 3.7903 0.8440 -4588.9224 2207.5445 0.0000 0.0000 0.0000 -2361.4783 0.0000 -2361.4783 -2361.4783 0.0000 45248.4974 29713.5979 17332.7403 45248.4974 29713.5979
ENERGY: 12 2.0430 9.1546 3.6590 0.3214 -4664.2922 799.0794 0.0000 0.0000 0.0000 -3850.0347 0.0000 -3850.0347 -3850.0347 0.0000 21867.6260 6241.5286 17332.7403 21867.6260 6241.5286
ENERGY: 16 147.1369 34.0446 4.0563 4.0005 -4924.2432 566.1250 0.0000 0.0000 0.0000 -4168.8799 0.0000 -4168.8799 -4168.8799 0.0000 16328.1515 -310.8300 17332.7403 16328.1515 -310.8300
ENERGY: 20 79.2402 20.8922 3.8386 2.0297 -4876.0180 581.0247 0.0000 0.0000 0.0000 -4188.9926 0.0000 -4188.9926 -4188.9926 0.0000 17054.9373 617.6687 17332.7403 17054.9373 617.6687
TCL: Running for 3020 steps
ETITLE: TS BOND ANGLE DIHED IMPRP ELECT VDW BOUNDARY MISC KINETIC TOTAL TEMP POTENTIAL TOTAL3 TEMPAVG PRESSURE GPRESSURE VOLUME PRESSAVG GPRESSAVG
ENERGY: 20 79.2402 20.8922 3.8386 2.0297 -4876.0180 581.0247 0.0000 0.0000 0.0000 -4188.9926 0.0000 -4188.9926 -4205.6677 0.0000 850.8907 851.6118 17332.7403 850.8907 851.6118
ENERGY: 624 4.3747 9.3733 4.2675 0.4157 -5699.7453 521.7794 0.0000 0.0000 949.3777 -4210.1570 309.2224 -5159.5347 -4215.9312 309.2224 -1019.8942 -999.8817 16113.5009 -1019.8942 -999.8817
ENERGY: 1228 4.9059 10.0651 4.2781 0.0980 -5853.0740 563.3628 0.0000 0.0000 957.7867 -4312.5775 311.9613 -5270.3642 -4319.0558 311.9613 -414.8634 -419.0766 16076.7454 -414.8634 -419.0766
ENERGY: 1832 2.4852 9.7276 3.9660 0.4525 -5924.9829 578.0604 0.0000 0.0000 947.6563 -4382.6350 308.6617 -5330.2912 -4384.0678 308.6617 -156.2877 -174.5148 15614.5688 -156.2877 -174.5148
ENERGY: 2436 4.8292 16.9277 7.9652 2.7781 -5938.5677 582.1250 0.0000 0.0000 955.8292 -4368.1133 311.3237 -5323.9425 -4371.1356 311.3237 951.3772 953.4067 15384.6739 951.3772 953.4067
ENERGY: 3040 4.5916 25.3579 4.6090 1.5875 -5812.5448 530.8176 0.0000 0.0000 937.1301 -4308.4510 305.2332 -5245.5811 -4309.4805 305.2332 -521.9894 -563.5971 15447.4474 -521.9894 -563.5971
